#!/sbin/sh

VAIOPFMD="16.09.22 (86)"

{ #TMPDIR, Magisk Default Var, BB & Other Useful Links
IPDLTMP="/data/local/tmp"
TMPDIR="$IPDLTMP/AIOPFMD"
ALTTMPDIR="/dev/AIOPFMD"
NVBASE="/data/adb"
IPDMM="/data/magisk"
SERVICED="$NVBASE/service.d"
POSTFSDATAD="$NVBASE/post-fs-data.d"
MODPATH="$NVBASE/modules"
MODPATHUPD="$NVBASE/modules_update"
OUTFD="$2"
ZIPFILE="$3"
ADDONS="$ALTTMPDIR/Addons"
BB="$ALTTMPDIR/BB"
UNTARXZ="$BB/tar"
UNZIP="$BB/unzip"
ECHO="$BB/echo"
HEAD="$BB/head"
ZIPALIGN="$ADDONS/zipalign"
ZIPPACKER="$ADDONS/zip"
} #

{ #Version Or Date Of Patches In This Patch
#UI: Pills/NavBar/Gboard/Themes/BA/Sounds
IDPO="Pills"; VIPPO="v2.0"
IDPCO="PillsColors"; VIPPCO="v1.5"
IDPHOS="PillsHeight"; VIPPHO="v1.4"
IDPSHNB="ShowHideNavigationBar"; VIPPSHNB="v1.0"
IDBGDS="BackGestureDisabler"; VIPBGD="v1.0"
IDGBNBS="GboardNavBarSpacing"; VIPGBNBS="v1.2"
IDGBRC="GBoardRoundedCorners"; VIPGBRC="v1.1"
IDGBT="GBoardThemes"; VIPGBT="v1.4"
IDGBSTE="GboardSilkThemeChanger"; VIPGBSTE="v1.1"
IDSBINNI="SBINNI"; VIPSBINNI="v1.9"
IDGPPM="GPayPowerMenu"; VIPGPPM="v1.1"
IDRUI="RoundedUI"; VIPRUI="v3.1"
IDBIP="BurnInProtection"; VIPBIP="v1.9"
IDNSP="NotificationSidePaddings"; VIPNSP="v1.4"
IDSBISP="StatusBarIconSpace"; VIPSBISP="v1.3"
IDSBISI="StatusBarIconSize"; VIPSBISI="v1.1"
IDSBCS="StatusBarClockSize"; VIPSBCS="v1.1"
IDSUE="SingleUserEnabler"; VIPSUE="v1.1"
IDSBP="StatusBarPadding"; VIPSBP="v1.6"
IDQSCP="QSContentPadding"; VIPQSCP="v1.1"
IDSUIRSRS="SUIRoundedSize"; VIPSUIRSRS="v1.2"
IDQSCIAR="QSCountIconAndRows"; VIPQSCIAR="v1.6"
IDSBPD="StatusBarPrivacyDot"; VIPSBPD="v1.1"
IDEBB="BackgroundBlur"; VIPEBB="v1.1"
IDBA="BootAnimation"; VIPBA="v1.9"
IDIOSEMOJI="IOSEmoji"; VIPIOSEMOJI="v1.1"
IDMUIS="MediaUISounds"; VIPMUIS="v1.9"
IDFDNI="ForceDisableNotificationIcons"; VIPFDNI="v1.0"
IDWFAMDQSOS="WFAMDQSOS"; VIPWFAMDQSOS="v1.1"
#Launchers: Shady/Lawnchair/Sushi
IDSSL="Systemless_ShadyLauncher"; VIPSSLQ="v1.5"; VCIPSSLQ="15"; VIPSSLR="v2021.11.28"; VCIPSSLR="20211128"
IDSL="Systemless_Lawnchair"; VIPSL="v2.6"; VIPASLSL="12.1.0 Alpha 4"
IDSSUL="Systemless_SushiLauncher"; VIPSSUL="v1.4"; VIPSSULA="v5.0"
#Audio: VFX(P)/DOLBY/NLS/AIST/SAQ/IB/AML/ALCF
IDVFX="V4AFX"; VIPVFX="v1.4"
IDVFXP="V4AFXPresets"; VIPVFXP="v1.8"
IDDA="DolbyAtmos"; VIPDA="v1.5"
IDNLS="NLSound"; VIPNLS="v3.4"; VCIPNLS="1109"
IDAIST="AIST"; VIPAIST="v1.6"; VCIPAIST="0909"
IDSAQ="SystemAudioQuality"; VIPSAQ="v2.1"; VCIPSAQ="21"
IDIBS="IncreaseBitrate"; VIPIBS="v1.2"
IDAML="AML"; VIPAML="v4.2"; VCIPAML="42"
IDALCF="ALCF"; VIPALCF="v1.2"
#AdBlock/Hosts
IDDAB="DisableAdBlocker"; VIPDAB="v1.0"; VCIPDAB="1"
IDVAAH="AdAwayHosts"; VIPVAAH="15.09.2022"
IDVSH="SystemlessHostsUnified"; VIPVSH="17.0-220116"; VCIPVSH="170"
IDEH="EnergizedHosts"; VIPEH="16.09.2022"
#Net: GPS/WIFI/TTL/DNS/APAUSBTF
IDGPSP="GPSPatcher"; VIPGPSP="v1.0"
IDWIFIP="WIFIPatcher"; VIPWIFIP="v1.2"
IDTTLF="NFQTTL"; VIPTTLF="v2.8"; VCIPTTLF="28"
IDNT="NetworkTweak"; VIPNT="v6.0"; VCIPNT="60"
IDAPAUSBTF="APAUSBTF"; VIPAPAUSBTF="v1.0"
#Utilities: BB/SELC/CC/MMFR/DETACH/LSPosed
IDBB="BrutalBusyBox"; VIPBB="v1.36.0.1"; VCIPBB="13601"
IDSELC="SELinuxChanger"; VIPSELC="v1.3"
IDCC="CacheCleaner"; VIPCC="v2.7"
IDMMFR="MMFR"; VIPMMFR="v1.0"
IDDETACH="DETACH" VIPDETACH="v1.1"
IDLSPOSEDZ="zygisk_lsposed"; VIPLSPOSEDZ="v1.8.4 (6609)"; VCIPLSPOSEDZ="6609"
#Other: FA/LED/FSFM/UAA/SBU/GASL
IDFPA="FingerprintActions"; VIPFPA="v1.2"
IDLEDLO="LEDLightOff"; VIPLEDLO="v1.3"
IDLEDLA="LEDLightAnimation"; VIPLEDLA="v1.2"
IDFSLFM="FSFM"; VIPFSLFM="v1.2"
#Tweaks: FGS/BP/KL/UGMSD/USGP/VS
IDFGS="ForceGoogleSync"; VIPFGS="v1.1"
IDFEG="ForceGestures"; VIPFEG="v1.1"
IDHAP="EnablingHiddenApiPolicy"; VIPHAP="v1.2"
IDAFUS="AFUSS"; VIPAFUS="v1.1"
IDBPT="BuildPropTweaks"; VIPBPT="v2.4"
IDKL="KillLogger"; VIPKL="v1.9"; VCIPKL="19"
IDFMSAAS="ForceMSAASwitcher"; VIPFMSAAS="v1.0"
IDFDHWO="ForceDisableHWOverlays"; VIPFDHWO="v1.1"
IDFDEVADB="ForceDEVADB"; VIPFDEVADB="v1.6"
IDFMTP="ForceMTP"; VIPFMTP="v1.0"
IDSOOOFUIRC="SOOOFUIRC"; VIPSOOOFUIRC="v2.0"
IDFDM="ForceDarkMode"; VIPFDM="v1.0"
IDFDPP="ForceDisablingPlayProtect"; VIPFDPP="v1.0"
IDFI="ForceIdle"; VIPFI="v1.0"
IDUGMSD="UniversalGMSDoze"; VIPUGMSD="v1.8.7"; VCIPUGMSD="187"
IDUSGP="USGP"; VIPUSGP="v1.3"
IDAS="AnimationScale"; VIPAS="v1.1"
IDGPUR="GPURendering"; VIPGPUR="v1.1"
IDVS="VolumeSteps"; VIPVS="v1.2"
} #

{ #Functions

AIOPFMD () {
BOOT_DETECTED
APMSGASD
PARTITION_AND_MOUNTS
IMPORTANT_VARIABLES
RM_LIST
CHECKER "miui bb arch sel soc gapps av device magisk" "-x"
PATCHMODE
UIP "Copy AIOPFMD To TMPDIR$MSGPMODE"
(if $DEBUGMODE || $TESTMODE; then mkdir -p $PLOGS/RECOVERY $PLOGS/MM; fi; [ -d $TMPDIR ] && rm -rf $TMPDIR; mkdir -p $TMPDIR; [ -d $ALTTMPDIR ] && rm -rf $ALTTMPDIR; mkdir -p $ALTTMPDIR
unzip -oq $ZIPFILE BB.zip Addons.tar.xz -d $ALTTMPDIR 2>/dev/null
unzip -oq $BB.zip -d $ALTTMPDIR 2>/dev/null; rm -f $BB.zip
chmod -R 0777 $TMPDIR $ALTTMPDIR
$BB/busybox-$ARCH --install -s $BB
$UNTARXZ -xf $ADDONS.tar.xz -C $ALTTMPDIR; rm -f $ADDONS.tar.xz
[ $BOOTMODE != true ] && mkdir -p $AIOPFMDPH) &
PRESETS
END
}

BOOT_DETECTED () {
[ -z $BOOTMODE ] && ps | grep zygote | grep -qv grep && BOOTMODE=true
[ -z $BOOTMODE ] && ps -A 2>/dev/null | grep zygote | grep -qv grep && BOOTMODE=true
[ -z $BOOTMODE ] && BOOTMODE=false
}

APMSGASD () {
MSGSD="•"
MSGCS="••••••••••••••••••••••••••••••••••••••••••••••••••"
if $BOOTMODE; then
MSGVU="▲ ►"; MSGVD="▼ ►"
else
MSGVU="+ >"; MSGVD="- >"
fi
MSGDI="Install Done"
MSGDRM="Removing Done"
MSGDRP="Replace Done"
MSGDRS="Restore Done"
MSGFI="Found Install"
MSGPNF="Patching Needed Files..."
MSGFFAP="Files Found And Patched"
MSGIIP="(I)"
MSGEFTC="(\)"
MSGNIS="(|)"
MSGNUS="(/)"
MSGEEFTC="(|\)"
MSGEND="(//)"
MSGRI="(R)"
MSGWDI="Community"
MSGPMODE="$MSGSD Opens Some Test Items/Patches - Set: U(ser) Or D(ebug)"
MSGLEDCOLOR="$MSGSD This Is The Color Of Your Diode - Set: R(ed), G(reen), B(lue) Or W(hite)"
MSGHFMODE="$MSGSD Adds Tactile Feedback To Patch Selections - Set: Values From 1 To 255 For Weak/Strong Vibration"
MSGHFSMODE="$MSGSD Sets Values From HFMODE Not To duration, But To enable And/Or activate - Set: false Or true"
MSGENDMODE="$MSGSD Allows You To Return To The Beginning Of The Patch Without Reselecting If You Missed Something - Set: false Or true"
MSGMMUPDC="$MSGSD Adds Version Checking Of Magisk Modules Between Patch And Installed - Set: false Or true"
MSGLEGACYMODE="$MSGSD Includes Showing Old/Obsolete Patches/Features - Set: false Or true"
}

IS_MOUNTED () {
grep -q " `readlink -f $1` " /proc/mounts 2>/dev/null
return $?
}

PARTITION_AND_MOUNTS () {
if $BOOTMODE; then
MSGCS
else
DABP=false
if [ -n "$(cat /proc/cmdline | grep slot_suffix)" ]; then
DABP=true; SYSTEM_MOUNT="/system"; SYSTEM="$SYSTEM_MOUNT/system"; VENDOR="/vendor/vendor"
elif [ -n "$(cat /etc/fstab | grep /system_root)" ]; then
SYSTEM_MOUNT="/system_root"; SYSTEM="$SYSTEM_MOUNT/system"; VENDOR="/vendor"
else
SYSTEM_MOUNT="/system"; SYSTEM="$SYSTEM_MOUNT"; VENDOR="/vendor"
fi
for p in "$SYSTEM_MOUNT" "$VENDOR" "/cust" "/system_ext" "/product" "/odm"; do
if [ -d "$p" ] && grep -q "$p" "/etc/fstab"; then
MOUNTS="$MOUNTS $p"
fi
done
for m in $MOUNTS; do
if IS_MOUNTED "$m"; then umount "$m"; fi
mount "$m"
mount -o remount,rw "$m"
done
grep -q "$SYSTEM_MOUNT.*\sro[\s,]" /proc/mounts && mount -o remount,rw $SYSTEM_MOUNT
UIP -s "Mounting Partitions"
fi
if [ -f /system/system/build.prop ]; then SYSTEM="/system/system"; elif [ -f /system_root/system/build.prop ]; then SYSTEM="/system_root/system"; elif [ -f /system/build.prop ]; then SYSTEM="/system"; fi
if [ $BOOTMODE != true ] && [ -n "$(cat /etc/fstab | grep /vendor)" ]; then :; elif [ $BOOTMODE != true ] && [ -d $SYSTEM/vendor ]; then VENDOR="$SYSTEM/vendor"; else VENDOR="/vendor"; fi
}

IMPORTANT_VARIABLES () {
if $BOOTMODE; then if [ -n $MAGISKTMP ]; then MAGISKMP="$MAGISKTMP/mirror"; elif [ -d "/sbin/.magisk" ]; then MAGISKMP="/sbin/.magisk/mirror"; else MAGISKMP=$(find `magisk --path` -type d -name "mirror" | head -n 1); fi; else MAGISKMP=""; fi
MIPSV="/system/vendor"
IPSB="$SYSTEM/bin"; MIPSB="/system/bin"
IPSXB="$SYSTEM/xbin"; MIPSXB="/system/xbin"
IPSA="$SYSTEM/app"; MIPSA="/system/app"
IPSPA="$SYSTEM/priv-app"; MIPSPA="/system/priv-app"
IPSE="$SYSTEM/etc"; MIPSE="/system/etc"
IPSEI="$IPSE/init"; MIPSEI="$MIPSE/init"
IPSEID="$IPSE/init.d"; MIPSEID="$MIPSE/init.d"
IPSES="$IPSE/sysconfig"; MIPSES="$MIPSE/sysconfig"
IPSEP="$IPSE/permissions"; MIPSEP="$MIPSE/permissions"
IPSEDP="$IPSE/default-permissions"; MIPSEDP="$MIPSE/default-permissions"
IPSL="$SYSTEM/lib"; MIPSL="/system/lib"
IPSL64="$SYSTEM/lib64"; MIPSL64="/system/lib64"
IPSLM="$IPSL/modules"; MIPSLM="$MIPSL/modules"
IPSLS="$IPSL/soundfx"; MIPSLS="$MIPSL/soundfx"
IPSLS64="$IPSL64/soundfx"; MIPSLS64="$MIPSL64/soundfx"
IPSAD="$SYSTEM/addon.d"; MIPSAD="/system/addon.d"
IPSBP="$SYSTEM/build.prop"; MIPSBP="/system/build.prop"
IPSSP="$SYSTEM/product"; MIPSSP="/system/product"
IPSSPBP="$IPSSP/build.prop"; MIPSSPBP="$MIPSSP/build.prop"
IPSSPA="$IPSSP/app"; MIPSSPA="$MIPSSP/app"
IPSSPPA="$IPSSP/priv-app"; MIPSSPPA="$MIPSSP/priv-app"
IPSSPE="$IPSSP/etc"; MIPSSPE="$MIPSSP/etc"
IPSSPES="$IPSSPE/sysconfig"; MIPSSPES="$MIPSSPE/sysconfig"
IPSSPEP="$IPSSPE/permissions"; MIPSSPEP="$MIPSSPE/permissions"
IPSSE="$SYSTEM/system_ext"; MIPSSE="/system/system_ext"
IPSSEPE="$IPSSE/etc"; MIPSSEPE="$MIPSSE/etc"
IPSSEPES="$IPSSEPE/sysconfig"; MIPSSEPES="$MIPSSEPE/sysconfig"
IPSSEPEP="$IPSSEPE/permissions"; MIPSSEPEP="$MIPSSEPE/permissions"
IPSSEA="$IPSSE/app"; MIPSSEA="$MIPSSE/app"
IPSSEPA="$IPSSE/priv-app"; MIPSSEPA="$MIPSSE/priv-app"
IPSFW="$SYSTEM/framework"; MIPSFW="/system/framework"
IPSPO="$IPSSP/overlay"; MIPSPO="$MIPSSP/overlay"
IPSO="$SYSTEM/overlay"; MIPSO="/system/overlay"
IPSUKL="$SYSTEM/usr/keylayout"; MIPSUKL="/system/usr/keylayout"
IPSPM="$IPSSP/media"; MIPSPM="$MIPSSP/media"
IPSPMAU="$IPSPM/audio/ui"; MIPSPMAU="$MIPSPM/audio/ui"
IPSM="$SYSTEM/media"; MIPSM="/system/media"
IPSMAU="$IPSM/audio/ui"; MIPSMAU="$MIPSM/audio/ui"
IPSF="$SYSTEM/fonts"; MIPSF="/system/fonts"
IPSEDF="$IPSE/device_features"; MIPSEDF="$MIPSE/device_features"
IPSED="$IPSE/dolby"; MIPSED="$MIPSE/dolby"
IPVBP="$VENDOR/build.prop"; MIPSVBP="$MIPSV/build.prop"
IPVE="$VENDOR/etc"; MIPSVE="$MIPSV/etc"
IPVEDC="$IPVE/dirac"; MIPSVEDC="$MIPSVE/dirac"
IPVL="$VENDOR/lib"; MIPSVL="$MIPSV/lib"
IPVL64="$VENDOR/lib64"; MIPSVL64="$MIPSV/lib64"
IPVLRA="$IPVL/rfsa/adsp"; MIPSVLRA="$MIPSVL/rfsa/adsp"
IPVDA="$VENDOR/dsp/adsp"; IPSVDA="$MIPSV/dsp/adsp"
IPVLM="$IPVL/modules"; MIPSVLM="$MIPSVL/modules"
IPVLS="$IPVL/soundfx"; MIPSVLS="$MIPSVL/soundfx"
IPVLS64="$IPVL64/soundfx"; MIPSVLS64="$MIPSVL64/soundfx"
IPVO="$VENDOR/overlay"; MIPSVO="$MIPSV/overlay"
IPVUKL="$VENDOR/usr/keylayout"; MIPSVUKL="/vendor/usr/keylayout"
IPVA="$VENDOR/app"; MIPSVA="$MIPSV/app"
IPVPA="$VENDOR/priv-app"; MIPSVPA="$MIPSV/priv-app"
IPVEDF="$IPVE/device_features"; MIPSVEDF="$MIPSV/device_features"
IPVED="$IPVE/dolby"; MIPSVED="$MIPSVE/dolby"
IPVB="$VENDOR/bin"; MIPSVB="$MIPSV/bin"
IPVBHW="$IPVB/hw"; MIPSVBHW="$MIPSVB/hw"
IPDA="/data/app"
IPDD="/data/data"
IPDS="/data/system"
IPDSDE="/data/system_de"
IPDSU="$IPDS/users/0"
IPDSUDE="/data/user_de"
IPDSNS="$IPDS/netstats"
IPDM="/data/misc"
IPDMDE="/data/misc_de"
IPDRESC="/data/resource-cache"
STORAGE="/data/media/0"
ACXML="$(find $SYSTEM $VENDOR -type f -name "audio_configs*.xml")"
APIXML="$(find $SYSTEM $VENDOR -type f -name "audio_platform_info*.xml")"
AECONFXML="$(find $SYSTEM $VENDOR -type f -name "*audio_effects*.conf" -o -name "*audio_effects*.xml")"
MPATHS="$(find $SYSTEM $VENDOR -type f -name "*mixer_paths*.xml")"
BTCSCONF="$(find $SYSTEM $VENDOR -type f -name "bt_configstore.conf")"
BTSCONF="$(find $SYSTEM $VENDOR -type f -name "bt_stack.conf")"
MCGAX="$(find $SYSTEM $VENDOR -type f -name "media_codecs*audio.xml")"
AIPAOPCONF="$(find $SYSTEM $VENDOR -type f -name "*audio_io_policy*.conf" -o -name "*audio_output_policy*.conf")"
APCXML="$(find $SYSTEM $VENDOR -type f -name "*audio_policy_configuration*.xml")"
A2DPXML="$(find $SYSTEM $VENDOR -type f -name "a2dp*.xml")"
BTQTIXML="$(find $SYSTEM $VENDOR -type f -name "bluetooth*.xml")"
VIRTXML="$(find $SYSTEM $VENDOR -type f -name "virtual*.xml")"
USBXML="$(find $SYSTEM $VENDOR -type f -name "usb*.xml")"
RSUBMIXXML="$(find $SYSTEM $VENDOR -type f -name "r_submix*.xml")"
VEHICLEXML="$(find $SYSTEM $VENDOR -type f -name "vehicle*.xml")"
STPIXML="$(find $SYSTEM $VENDOR -type f -name "sound_trigger_platform_info*.xml")"
MPXML="$(find $SYSTEM $VENDOR -type f -name "media_profiles*.xml")"
MCXML="$(find $SYSTEM $VENDOR -type f -name "media_codecs.xml")"
WCNSQCCFGI="$(find $SYSTEM $VENDOR -type f -name "WCNSS_qcom_cfg.ini")"
GPSCONF="$(find $SYSTEM $VENDOR -type f -name "gps.conf")"
SDAXXML="$IPSED/*.xml"; VDAXXML="$IPVED/*.xml"
SDEVFE="$IPSEDF/*.xml"; VDEVFE="$IPVEDF/*.xml"
XMLGLOBAL="$IPDSU/settings_global.xml"; XMLSECURE="$IPDSU/settings_secure.xml"; XMLSYSTEM="$IPDSU/settings_system.xml"
SPGLOBAL="settings put global"; SPSECURE="settings put secure"; SPSYSTEM="settings put system"
SGGLOBAL="settings get global"; SGSECURE="settings get secure"; SGSYSTEM="settings get system"
if [ -f $STORAGE/PATCHMODE* ]; then PATCHMODEFILE="$(find $STORAGE/PATCHMODE*)"; FINDPATCHMODE=true; else for f in $(ls $STORAGE); do if [ -f $STORAGE/$f/PATCHMODE* ]; then PATCHMODEFILE="$(find $STORAGE/$f/PATCHMODE*)"; FINDPATCHMODE=true; break; else FINDPATCHMODE=false; fi; done; fi; if [ $FINDPATCHMODE != true ]; then touch $STORAGE/PATCHMODE.conf; PATCHMODEFILE="$STORAGE/PATCHMODE.conf"; fi
PMODE="$(GET_FILE_PROP -pm "$PATCHMODEFILE" "PMODE")"
HFDURATION="$(GET_FILE_PROP -pm "$PATCHMODEFILE" "HFMODE")"
HFSWAPMODE="$(GET_FILE_PROP -pm "$PATCHMODEFILE" "HFSMODE")"
LEDCOLOR="$(GET_FILE_PROP -pm "$PATCHMODEFILE" "LEDCOLOR")"
ENDMODE="$(GET_FILE_PROP -pm "$PATCHMODEFILE" "ENDMODE")"
DRMODE="$(GET_FILE_PROP -pm "$PATCHMODEFILE" "DRMODE")"
MMUPDC="$(GET_FILE_PROP -pm "$PATCHMODEFILE" "MMUPDC")"
LEGACYMODE="$(GET_FILE_PROP -pm "$PATCHMODEFILE" "LEGACYMODE")"
PROPFILES="$IPSBP $IPVBP"
TIME="$( date +"%d-%m-%Y-%H:%M:%S" )"
GBFVXML="$IPDD/com.google.android.inputmethod.latin/shared_prefs/flag_value.xml"
SYSCL="/sys/class/leds"
LEDLSC="chmod 0755 /sys/class/*/*/* /sys/module/*/*/*"
LEDMBRED="$SYSCL/red/max_brightness"
LEDMBGREEN="$SYSCL/green/max_brightness"
LEDMBBLUE="$SYSCL/blue/max_brightness"
LEDMBWHITE="$SYSCL/white/max_brightness"
LEDRED="$SYSCL/red/brightness"
LEDGREEN="$SYSCL/green/brightness"
LEDBLUE="$SYSCL/blue/brightness"
LEDWHITE="$SYSCL/white/brightness"
FLASHLIGHT="$SYSCL/flashlight/brightness"
BUTTONBACKLIGHT="$SYSCL/button-backlight/brightness"
AIOPFMDPH="$IPSB/aiopfmdph"
if [ -d $IPSPO ] && [ -d $IPVO ]; then IPPSO="$IPSPO"; MIPPSO="$MIPSPO"; IPPVO="$IPVO"; MIPPVO="$MIPSVO"; elif [ -d $IPSPO ]; then IPPSO="$IPSPO"; MIPPSO="$MIPSPO"; IPPVO="$IPSPO"; MIPPVO="$MIPSPO"; elif [ -d $IPSO ]; then IPPSO="$IPSO"; MIPPSO="$MIPSO"; IPPVO="$IPSO"; MIPPVO="$MIPSO"; fi
if [ -d $IPSMAU ]; then IPPMU="$IPSMAU"; MIPPMU="$MIPSMAU"; elif [ -d $IPSPMAU ]; then IPPMU="$IPSPMAU"; MIPPMU="$MIPSPMAU"; fi
if [ -d $IPSPM ]; then IPPM="$IPSPM"; MIPPM="$MIPSPM"; elif [ -d $IPSM ]; then IPPM="$IPSM"; MIPPM="$MIPSM"; fi
for f in Fox TWRP SHRP PBRP; do if [ -d $STORAGE/$f ]; then PLOGS="$STORAGE/$f/AIOLogs"; FPLOGS=true; break; else FPLOGS=false; fi; done; if [ $FPLOGS != true ]; then PLOGS="$STORAGE/AIOLogs"; fi
if [ ! -d $IPSXB ] && [ $BOOTMODE != true ]; then mkdir -p $IPSXB; IPPSXB=$IPSXB; IPPSXBM=$MIPSXB; BINPATH=xbin; elif [ ! -d $IPSXB ] && $BOOTMODE; then IPPSXB=$IPSB; IPPSXBM=$MIPSB; BINPATH=bin; else IPPSXB=$IPSXB; IPPSXBM=$MIPSXB; BINPATH=xbin; fi
}

RM_LIST () {

STOCKLISTNOMIUI="
Calculator
Calendar
Contacts
DeskClock
FileExplorer
FileExplorerGlobal
MiuiCamera
Mms
"

STOCKLIST="
404Clock
AEXPapers
APlayer
AbleMusic
AboutBliss
Abstruct
AccuweatherPhone2015_MASS_HD_SWS
AdAway
Aegis
AirDots
AirDotsPlugin
AnalyticsCore
AncientClockWidget
AndroidAutoPrebuilt
AndroidAutoStub
AndroidAutoStubPrebuilt
AndroidForWork
AudioFX
BasicDreams
BatteryTile
BetterBug
BookmarkProvider
Books
BooksPhone
BooksStub
Browser
Browser2
BrowserXposed
CMFileManager
CalculatorGoogle
CalculatorGooglePrebuilt
CalendarGoogle
CalendarGooglePrebuilt
Camera
Camera2
CameraExtensionsProxy
CameraGo
CarHomeGoogle
CarrierServices
CatchLog
CellBroadcastApp
ChocoEUKor
Chrome
Chrome-Stub
ChromeCustomizations
ClockPackage_MASS_Le
CloudPrint
CloudPrint2
ColtPapers
Covers
CtsShimPrivPrebuilt
DeskClockGoogle
DeviceIntelligenceNetworkPrebuilt
DevicePersonalizationPrebuiltPixel2020
DevicePersonalizationPrebuiltPixel2021
DevicePersonalizationPrebuiltPixel4
DevicePolicyPrebuilt
DiagMonAgent
DiagnosticsToolPrebuilt
Dialer
DigitalClockEasy_L
DigitalClock_L
DotFEWallpapers
DotWallpapers
Drive
DualClockDigital_L
DuckDuckGo
Duo
EasterEgg
EasymodeContactsWidget
Eleven
Email
EmergencyInfo
EngineerMode
Etar
EvoEgg
ExactCalculator
Excel_SamsungStub
Exchange2
FBAppManager_NS
FBInstaller_NS
FDroid
FDroidPrivilegedExtension
FM
FM2
FMRadio
FM_TEST
Facebook_stub
FilesPrebuilt
Firewall
FitnessPrebuilt
Focus
FotaAgent
GCS
GCam
GCamGOPrebuilt
GCamGo
Galaxy4
GalaxyApps
Gallery
Gallery2
GalleryGo
GalleryGoPrebuilt
GalleryGoogle
GalleryPrebuilt
GameCenter
GameCenterGlobal
Gboard
Gcam
GenieWidget
GlobalTrendNews
GlobalUserGuide
Gmail
Gmail2
GoogleCalendar
GoogleCamera
GoogleCameraGo
GoogleCameraLegacy
GoogleCloudPrint
GoogleContacts
GoogleDialer
GoogleEars
GoogleEarth
GoogleFeedback
GoogleHangouts
GoogleHindiIME
GoogleHome
GoogleJapaneseInput
GoogleKeep
GoogleKeyboard
GoogleLatinIme
GoogleMusic
GoogleNow
GoogleNowVoiceSearch
GooglePinyinIME
GooglePlus
GooglePrintRecommendationService
GoogleTTS
GoogleVrCore
GrapheneCamera
HTMLViewer
Hangouts
HangoutsDialer
Health
HelpRtcPrebuilt
HoloSpiralWallpaper
HotwordEnrollment
HotwordEnrollmentOKGoogle*
HotwordEnrollmentXGoogle*
HybridAccessory
HybridPlatform
HybridRadio2015
HyconWallpapers
IdMipay
InMipay
Jelly
Joyose
KLMSAgent
Keep
KimciRecorder
KoreanIME
KoreanIMEStub
LPaper-v1.0.0-release
LPaper-v2.0-release
LatinIME
LatinIMEGooglePrebuild
LatinIMEGooglePrebuilt
LatinImeDictionaryPack
LatinImeGoogle
LatinImeGoogleWithLatinIME
LatinImeTutorial
Lawnfeed
Leaflet
Lens
MSA-Global
MSSkype_stub
MaestroPrebuilt
Maps
MatLog
MatchmakerPrebuilt
MatchmakerPrebuiltPixel4
Megogo
Megogo_vender
Messages
Messaging
MiBrowser
MiBrowserGlobal
MiDrive
MiDrop
MiGalleryLockscreen
MiHealth
MiMover
MiMusic
MiPicks
MiService
MiShare
MiVideo
Mimoji
MiuiBugReport
MiuiCompass
MiuiScanner
MiuiSuperMarket
MiuiVideo
MiuiVideoGlobal
MiuiVideoPlayer
MozillaNlpBackend
Music
Music2
MusicFX
MusicPlayerGO
MyVerizonServices
NeMate
Netflix_activation
NewsWeather
Newsstand
NewsstandStub
NextPay
NexusLauncherIcons
NexusWallpapersStubPrebuilt2017
NexusWallpapersStubPrebuilt2019
NezukoMusic
NoiseField
Notes
NovaBugreportWrapper
ONESettings
OPFileManager
OPIconpackOnePlus
OPIconpackOxygen
OPIconpackRound
OPScreenRecord
OPScreenRecorder
OPWeather
OPWidget
OdadPrebuilt
OmniSwitch
OneNote
OneOSLogcat
OneOSSTATS
OneOSSpace
Opera
OperaMax
OperaMax_PreinstallProvider
Opera_data
Ornament
Papers
PartnerBookmarksProvider
PaymentService
PersonalAssistant
PersonalAssistantGlobal
PhaseBeam
Phonograph
PhotoTable
Photos
PicoTts
PixelLiveWallpaperPrebuilt
PixelWallpapers2020
PixelWallpapers2021
PlayGames
PowerPoint_SamsungStub
PrebuiltBugle
PrebuiltBugleStub
PrebuiltDeskClockGoogle
PrebuiltEmailGoogle
PrebuiltExchange3Google
PrebuiltGmail
PrebuiltGoogleTelemetryTvp
PulseMusic
PureBrowser
QPGallery
QuickAccessWallet
QuickSearchBox
RRWallpapers
Recorder
RecorderPrebuilt
RetroMusicPlayer
RetroMusicPlayerPrebuilt
RevengeMessages
RevengeOSCalculator
RockClient
RomStats
RoseEUKor
SBrowser_3.0.38_MASS_LATEST
SOAgent
SPPPushClient_Prod
SPenSdk3
SPlannerWidget_Essential
SPlanner_Essential
SafetyHubPrebuilt
SamsungIMEv2
SamsungSans
SamsungTTS
ScribePrebuilt
SecCalculator2_L
SecEmailComposer-mass
SecEmailProvider-mass
SecEmailSync-mass
SecEmailUI-mass
SecEmailWidget-mass
SecHTMLViewer
SecMyFiles2015_ESS
SecSetupWizard2015
SecurityHubPrebuilt
SecurityLogAgent
ShiftPapers
SimIcons
Simple-Calendar
SimpleCalendar
SimpleGallery
SimpleGalleryPro
SmartCookieWeb
SmartManagerSDK
SmartManager_OLEDHD
Snap
SnapdragonMusic
SoundAmplifierPrebuilt
SparkWallpaperStub
SprdQuickSearchBox
StatusBarLyricExt
Street
Superiorwalls
Talk
TeamOctavi
Terminal
TipsPrebuilt
TouchAssistant
Traceur
Translate
TranslatePrebuilt
Turbo
TurboAdapter
TurboPrebuilt
Tycho
UPTsmService
Velvet
Velvet_update
Via
ViaBrowser
Videos
VinylMusicPlayer
VoiceSearch
VoiceSearchStub
Wallet
Wallpaper
WallpapersBReel2017
WallpapersBReel2019
WallpapersBReel2020
WallpapersBReel2020a
WarpShare
WaveWidget
WeatherDaemon
WeatherTile
WebManual
Wellbeing
WellbeingPrebuilt
Word_SamsungStub
XiaomiKeyboard
YGPS
YellowPage
YouDaoEngine
YouTube
YouTubeMusicPrebuilt
YouTubeVanced
ZVideoMass
arcore
com.google.ar.core
crDroidMusic
facebook-appmanager
facebook-installer
facebook-services
googleconf
greenguard
iWnnIME
iWnnIME_Kbd_White
mab
madCamera
madLauncher
madWallpapers
messaging
stats
talkback
wellbeingconf
"

EXPERIMENTALLIST="
ANGLE
AmbientSensePrebuilt
AndroidMigratePrebuilt
AndroidPlatformServices
BackupRestoreConfirmation
BrowserProviderProxy
BuiltInPrintService
CalendarProvider
CellBroadcastReceiver
ChromeBookmarksSyncAdapter
ConfigUpdater
ConnMO
Currents
DMAgent
EditorsDocs
EditorsDocsStub
EditorsSheets
EditorsSheetsStub
EditorsSlides
EditorsSlidesStub
EuiccGoogle
ExchangeServices
FOTAKill
FaceLock
Finsky
GmsCore
GmsCoreSetupPrebuilt
GmsCore_update
GoogleBackupTransport
GoogleCalendarSyncAdapter
GoogleContactsSyncAdapter
GoogleLoginService
GoogleOneTimeInitializer
GooglePartnerSetup
GooglePlay
GoogleQuickSearchBox
GoogleSearch
GoogleServicesFramework
GoogleZhuyinIME
LineageSetupWizard
LocationHistoryPrebuilt
Magazines
MarketUpdater
Markup
MarkupGoogle
MediaUploader
NetworkLocation
OccamQuickOffice
OneTimeInitializer
Phonesky
PlayAutoInstallConfig
PlayStore
PlusOne
PrebuiltGmsCore
PrebuiltGmsCorePix
PrebuiltGmsCoreQt
PrebuiltGmsCoreRvc
PrebuiltKeep
PrebuiltKeepStub
PrebuiltNewsWeather
PrintSpooler
QuickOffice
SPrintSpoolerLMR1
SamsungBilling
SettingsGoogle
SettingsIntelligenceGooglePrebuilt
SoundPicker
SoundPickerPrebuilt
Stk
Stk2
StorageManagerGoogle
Tag
TagGoogle
TrichromeLibrary
TrichromeLibrary-Stub
VZWAPNLib
Vending
WallpaperPickerGoogle
WallpaperPickerGooglePrebuilt
WallpaperPickerGoogleRelease
WallpaperPicker_Zero2
WebView
WebViewGoogle
WebViewGoogle-Stub
WebViewStub
"

LAUNCHERLIST="
AsusLauncher
AsusLauncherDev
DerpLauncherQuickStep
EasyLauncher2_Zero
EnigmaLauncher
FluidLauncherQuickStep
Launcher3QuickStep
Lawnchair
NeLauncher
NexusLauncher
NexusLauncherPrebuilt
NexusLauncherRelease
OPLauncher
OPLauncher2
OPLauncherReleases
ParanoidQuickStep
PixelLauncher
RevengeLauncherQuickStep
ShadyLauncher
ShadyQuickStep
TWLauncherESS
Trebuchet
TrebuchetQuickStep
"

MMLAUNCHERLIST="
MotoLauncher
OneUIHome
PPL
Systemless_AsusLauncher
Systemless_CRLauncher
Systemless_CorvusLauncher
Systemless_CorvusLauncher_Port
Systemless_DerpLauncher
Systemless_DerpLauncher_Port
Systemless_Lawnchair
Systemless_LawnchairExtra
Systemless_Lawnchair_Plus
Systemless_LegitCherishOSLauncher_Port
Systemless_OPLauncher
Systemless_OneUIHome
Systemless_PixelLauncher
Systemless_PixelLauncherX
Systemless_ShadyLauncher
Systemless_SparkLauncher
Systemless_SushiLauncher
com.pixelated.launcher
quickstepswitcher
quickswitch_terminal
"

MMHOSTSLIST="
AdAwayHosts
DisableAdBlocker
Energized
EnergizedHosts
Hosts
LuckyPatcherHosts
SystemlessHostsUnified
disableadblock
hosts
systemless-hosts
"

}

CHECKER () {
for c in $1; do
case $c in
av) ASDK="$(GET_FILE_PROP "ro.build.version.sdk")"
ATEN=false; AELEVEN=false; ATWELVE=false; ATWELVEL=false
if [ "$ASDK" = "29" ]; then ATEN=true; ACNV="Q"
elif [ "$ASDK" = "30" ]; then AELEVEN=true; ACNV="R"
elif [ "$ASDK" = "31" ]; then ATWELVE=true; ACNV="S"
elif [ "$ASDK" = "32" ]; then ATWELVEL=true; ACNV="SL"
elif [ "$ASDK" = "33" ]; then UIP -s "Warning! SDK $ASDK Is Not Fully Support!"; ATHIRTEEN=true; ACNV="T"
elif [ "$ASDK" = "34" ]; then UIP -s "Warning! SDK $ASDK Is Not Fully Support!"; AFOURTEEN=true; ACNV="?"
fi
case $ASDK in
"19");; "21");; "22");; "23");; "24");; "25");; "26");; "27");; "28");; "29");; "30");; "31");; "32");; "33");; "34");; *) UIP -s "Warning! SDK Not Supported/Found!";;
esac
DYNLIB=true
[ $ASDK -lt 26 ] && DYNLIB=false
[ -z $DYNLIB ] && DYNLIB=false
if $DYNLIB; then DYNLIBPATCH="\/vendor\/lib\/soundfx"; else DYNLIBPATCH="\/system\/lib\/soundfx"; fi;;
miui) if [ -d /data/miui ] || grep "ro.miui.build.region" $IPSBP >/dev/null || grep "ro.miui.region" $IPSBP >/dev/null || grep "ro.miui.ui.version*" $IPSBP >/dev/null || grep "ro.miui.ui.version.name*" $IPSBP >/dev/null; then MIUI=true; else MIUI=false; fi;;
magisk) ZYGISK=false
if [ -d $IPDMM ] && [ -f $IPDMM/util_functions.sh ]; then
MAGISKFIRSTTIME=true; FINDMAGISK=true; MAGISK=true
MAGISKVC="$(GET_FILE_PROP -s "$IPDMM/util_functions.sh" "MAGISK_VER_CODE")"
elif [ -d $NVBASE/magisk ] && [ -f $NVBASE/magisk/util_functions.sh ]; then
MAGISKFIRSTTIME=false; FINDMAGISK=true; MAGISK=true
MAGISKVC="$(GET_FILE_PROP -s "$NVBASE/magisk/util_functions.sh" "MAGISK_VER_CODE")"
else
MAGISKFIRSTTIME=false; FINDMAGISK=false; MAGISK=false
fi
if $FINDMAGISK; then if [ $MAGISKVC -lt 23000 ]; then UIP "Found Old Magisk, Please Install Magisk v24.3+ (24300+)!"; elif [ $MAGISKVC -ge 23010 ]; then ZYGISK=true; fi; fi
if $MAGISK; then
mkdir -p $MODPATH $POSTFSDATAD $SERVICED
chmod 0755 $MODPATH $POSTFSDATAD $SERVICED
IAMM="(M)"
else
IAMM=""
fi;;
bb) if [ -f $IPSB/busybox ]; then BUSYBOX=/bin; FBUSYBOX=true; elif [ -f $IPSXB/busybox ]; then BUSYBOX=/xbin; FBUSYBOX=true; elif [ -d $MODPATH/$IDBB ] || [ -d $MODPATHUPD/$IDBB ] || [ -d $MODPATH/busybox-ndk ] || [ -d $MODPATHUPD/busybox-ndk ]; then FBUSYBOX=true; else FBUSYBOX=false; fi;;
arch) DARCH="$(GET_FILE_PROP "ro.product.cpu.abi")"
case "$DARCH" in
*arm64*) ARCH="arm64";;
*armeabi*) ARCH="arm";;
*) ARCH="Unknown"; UIP -s "Warning! $ARCH Not Supported/Found!";;
esac
AAPT="$ADDONS/aapt-$ARCH"
XMLSTARLET="$ADDONS/xmlstarlet-$ARCH"
SQLITE3="$ADDONS/sqlite3-$ARCH";;
sel) if grep -q "1" /sys/fs/selinux/enforce || [ $BOOTMODE != true ]; then SELINUX=true; SELINUXS="Enforcing"; elif grep -q "0" /sys/fs/selinux/enforce; then SELINUX=false; SELINUXS="Permissive"; fi;;
soc) SD617=$(grep "ro.board.platform=msm8952" $PROPFILES)
SD625=$(grep "ro.board.platform=msm8953" $PROPFILES)
SD660=$(grep "ro.board.platform=sdm660" $PROPFILES)
SD662=$(grep "ro.board.platform=bengal" $PROPFILES)
SD665=$(grep "ro.board.platform=trinket" $PROPFILES)
SD670=$(grep "ro.board.platform=sdm670" $PROPFILES)
SD690=$(grep "ro.board.platform=lito" $PROPFILES)
SD710=$(grep "ro.board.platform=sdm710" $PROPFILES)
SD720G=$(grep "ro.board.platform=atoll" $PROPFILES)
SD730G=$(grep "ro.board.platform=sm6150" $PROPFILES)
SD765G=$(grep "ro.board.platform=lito" $PROPFILES)
SD810=$(grep "ro.board.platform=msm8994" $PROPFILES)
SD820=$(grep "ro.board.platform=msm8996" $PROPFILES)
SD835=$(grep "ro.board.platform=msm8998" $PROPFILES)
SD845=$(grep "ro.board.platform=sdm845" $PROPFILES)
SD855=$(grep "ro.board.platform=msmnile" $PROPFILES)
SD865=$(grep "ro.board.platform=kona" $PROPFILES)
SD888=$(grep "ro.board.platform=lahaina" $PROPFILES)
SM8450=$(grep "ro.board.platform=taro" $PROPFILES)
if [ "$SD662" ] || [ "$SD665" ] || [ "$SD670" ] || [ "$SD690" ] || [ "$SD710" ] || [ "$SD720G" ] || [ "$SD730G" ] || [ "$SD765G" ] || [ "$SD820" ] || [ "$SD835" ] || [ "$SD845" ] || [ "$SD855" ] || [ "$SD865" ] || [ "$SD888" ] || [ "$SM8450" ]; then HIRES=true; else HIRES=false; fi
SNAPSOC=false; MTKSOC=false; EXYSOC=false; KIRSOC=false
if [ "$(grep -E "ro.board.platform=apq.*|ro.board.platform=msm.*|ro.board.platform=sdm.*" $PROPFILES)" ] || [ "$(grep "ro.board.platform=msm*" $PROPFILES)" ] || [ "$(grep "ro.board.platform=sdm*" $PROPFILES)" ] || [ "$SD617" ] || [ "$SD625" ] || [ "$SD660" ] || [ "$SD662" ] || [ "$SD665" ] || [ "$SD670" ] || [ "$SD690" ] || [ "$SD710" ] || [ "$SD720G" ] || [ "$SD730G" ] || [ "$SD765G" ] || [ "$SD810" ] || [ "$SD820" ] || [ "$SD835" ] || [ "$SD845" ] || [ "$SD855" ] || [ "$SD865" ] || [ "$SD888" ]; then
SNAPSOC=true
elif "$(grep -E "ro.mediatek.version.*|ro.hardware=mt*" $PROPFILES)" ] || [ "$(grep "ro.board.platform=mt*" $PROPFILES)" ] || [ "$(grep "ro.board.platform=MT*" $PROPFILES)" ] || [ "$(grep "Build.BRAND=MTK*" $PROPFILES)" ]; then
MTKSOC=true
elif "$(grep -E "ro.chipname=exynos*|ro.board.platform=exynos*" $PROPFILES)"; then
EXYSOC=true
elif "$(grep -E "ro.board.platform=hi.*|ro.board.platform=kirin*" $PROPFILES)"; then
KIRSOC=true
fi;;
gapps) FINDGAPPS=false
for f in "$IPSA" "$IPSPA" "$IPSSPA" "$IPSSPPA" "$IPSSEA" "$IPSSEPA"; do
for gms in "GmsCore" "PrebuiltGmsCore" "GoogleServicesFramework" "Phonesky"; do
if [ -d $f/$gms ]; then FINDGAPPS=true; break 2; fi
done
done
if [ $FINDGAPPS != true ]; then
for gms in "*bitgapps*.sh" "*flame*.sh" "*nikgapps*.sh" "*gapps*.sh"; do
if find $IPSAD -type f -name $gms >/dev/null; then FINDGAPPS=true; break; fi
done
fi;;
device) case $2 in
-x) MI8=$(grep -E "ro.product.vendor.device=dipper.*" $PROPFILES)
MI8P=$(grep -E "ro.product.vendor.device=equuleus.*" $PROPFILES)
MI9=$(grep -E "ro.product.vendor.name=cepheus.*|ro.product.name=cepheus.*" $PROPFILES)
MI9P=$(grep -E "ro.product.vendor.device=crux.*" $PROPFILES)
MIA2=$(grep -E "ro.product.vendor.device=jasmine.*" $PROPFILES)
ONEPLUS7=$(grep -E "ro.product.vendor.device=guacamoleb.*" $PROPFILES)
ONEPLUS7PRO=$(grep -E "ro.product.vendor.device=guacamole.*" $PROPFILES)
ONEPLUS7T=$(grep -E "ro.product.vendor.device=hotdogb.*" $PROPFILES)
ONEPLUS7TPRO=$(grep -E "ro.product.vendor.device=hotdog.*" $PROPFILES)
ONEPLUS8=$(grep -E "ro.product.vendor.device=instantnoodle.*" $PROPFILES)
ONEPLUS8PRO=$(grep -E "ro.product.vendor.device=instantnoodlep.*" $PROPFILES)
ONEPLUS8T=$(grep -E "ro.product.vendor.device=kebab.*" $PROPFILES)
ONEPLUS99PRO9R=$(grep -E "ro.product.vendor.device=lemonade.*" $PROPFILES)
ONEPLUSNORD=$(grep -E "ro.product.vendor.device=avicii.*" $PROPFILES)
POCOX3=$(grep -E "ro.product.vendor.device=surya.*" $PROPFILES)