#!/sbin/sh

{ #Default Var
set -x
VCAIOPFMD="110"; VAIOPFMD="31.03.24 ($VCAIOPFMD)"
IPDLTMP="/data/local/tmp"
TMPDIR="$IPDLTMP/AIOPFMD"
DEVTMPDIR="/dev/AIOPFMD"
IPDADB="/data/adb"
IPDMM="/data/magisk"
SERVICED="$IPDADB/service.d"
POSTFSDATAD="$IPDADB/post-fs-data.d"
MODPATH="$IPDADB/modules"
MODPATHUPD="$IPDADB/modules_update"
IN="$1"; OUTFD="$2"; ZIPFILE="$3"
ADDONS="$DEVTMPDIR/Addons"
BB="$DEVTMPDIR/BB"
TAR="$BB/busybox tar"
UNZIP="$BB/busybox unzip"
ECHO="$BB/busybox echo"
HEAD="$BB/busybox head"
ZIPALIGN="$ADDONS/zipalign"
ZIPPACKER="$ADDONS/zip"
} #

{ #Version Or Date Of Patches In This Patch
#UI: Pills/NavigationBar/Gestures
IDP="Pills"; IDAP="PillsOverlay HideNavBar HideGesBar HidePillsOverlay"; VIPP="v2.2"; VCIPP="13"
IDPC="PillsColors"; IDAPC="PillsColorsOverlay"; VIPPC="v1.6"; VCIPPC="7"
IDPHS="PillsHeight"; IDAPHS="PillsHeightOverlay"; VIPPH="v1.5"; VCIPPH="6"
IDNBVS="NavBarVisibilitySwitcher"; IDANBVS="NavBarVisibilityChanger HideNavigationBar ShowNavigationBar ShowHideNavigationBar NavigationBarVisibilityChanger"; VIPNBVS="v1.1"; VCIPNBVS="2"
IDBGDS="BackGestureDisabler"; VIPBGD="v1.0"; VCIPBGD="1"
IDFNS="ForceNavigationSwitcher"; IDAFNS="ForceGestures ForceNavigation"; VIPFNS="v1.2"; VCIPFNS="3"
#UI: StatusBar/QuickSettings
IDSINNI="SystemIncreaseNumberIcons"; IDASINNI="StatusBarIncreaseNumberIcons CINNOverlayMod CINNI SINNI SBINNI"; VIPSINNI="v2.3"; VCIPSINNI="14"
IDSBNISI="StatusBarNotificationIconSize"; IDASBNISI="StatusBarIconSize"; VIPSBNISI="v1.2"; VCIPSBNISI="3"
IDSBCS="StatusBarClockSize"; VIPSBCS="v1.2"; VCIPSBCS="3"
IDSBP="StatusBarPadding"; VIPSBP="v1.7"; VCIPSBP="8"
IDSBPD="StatusBarPrivacyDot"; VIPSBPD="v1.2"; VCIPSBPD="3"
IDSBNIDS="StatusBarNotificationIconDotSize"; VIPSBNIDS="v1.0"; VCIPSBNIDS="1"
IDSBISP="StatusBarIconSpace"; VIPSBISP="v1.4"; VCIPSBISP="5"
IDWFAMDQSOS="Wi-FiAndMobileDataQSOldStyle"; IDAWFAMDQSOS="OldDataWifiQsStyle WFAMDQSOS WFAMDQSSC"; VIPWFAMDQSOS="v1.1"; VCIPWFAMDQSOS="2"
IDFDNI="ForceDisableNotificationIcons"; VIPFDNI="v1.0"; VCIPFDNI="1"
IDNSP="NotificationSidePaddings"; VIPNSP="v1.5"; VCIPNSP="6"
IDQSCIAR="QSCountIconAndRows"; IDAQSCIAR="QSCIAR A12VerticalQS3Columns"; VIPQSCIAR="v1.7"; VCIPQSCIAR="8"
IDQSSN="QSSplitNotification"; IDAQSSN="better_qs"; VIPQSSN="v1.0"; VCIPQSSN="1"
IDQSCP="QSContentPadding"; IDASBP="SUIContentPadding"; VIPQSCP="v1.1"; VCIPQSCP="2"
#UI: LockScreen/AlwaysOnDisplay
IDQRCSOLS="QRCodeScannerOnLockScreen"; IDAQRCSOLS="QRCSOLS"; VIPQRCSOLS="v1.2"; VCIPQRCSOLS="3"
IDLSUS="LockScreenUserSwitcher"; IDALSUS="UserLockscreen"; VIPLSUS="v1.0"; VCIPLSUS="1"
IDAODS="AODSwitcher"; VIPAODS="v1.0"; VCIPAODS="1"
IDAODSD="AODStateDoze"; VIPAODSD="v1.0"; VCIPAODSD="1"
#UI: Gboard/GboardThemes
IDGBNBS="GboardNavBarSpacing"; IDAGBNBS="NavBar_Space gboardnavbar"; VIPGBNBS="v1.3"; VCIPGBNBS="4"
IDGBRC="GBoardRoundedCorners"; VIPGBRC="v1.2"; VCIPGBRC="3"
IDGBT="GBoardThemes"; IDAGBT="rboard-themes"; VIPGBT="v1.7"; VCIPGBT="8"
IDGBSTS="GboardSilkThemeSwitcher"; IDAGBSTS="gboard-silk-theme GboardSilkThemeChanger"; VIPGBSTS="v1.2"; VCIPGBSTS="3"
#UI: BootAnimation/MediaUISounds/Emoji
IDBA="BootAnimation"; VIPBA="v1.9"; VCIPBA="10"
IDMUIS="MediaUISounds"; IDAMUIS="MediaUiSounds"; VIPMUIS="v2.2"; VCIPMUIS="13"
IDIOSEMOJI="IOSEmoji"; IDAIOSEMOJI="iOS_Emoji iOS14.6_Emoji_for_Android emoji-replacer-259830633 emoji-replacer-809887617 emoji-replacer--1117766176 android11emoji EmojiReplacer"; VIPIOSEMOJI="v1.3"; VCIPIOSEMOJI="4"
#UI: RoundedUI/BIP/BackgroundBlur/Other
IDRUI="RoundedUI"; IDARUI="UIROUNDED"; VIPRUI="v3.6"; VCIPRUI="27"
IDBIP="BurnInProtection"; VIPBIP="v2.6"; VCIPBIP="17"
IDBB="BackgroundBlur"; VIPBB="v1.7" VCIPBB="8"
IDSUIRSRS="SUIRoundedSize"; VIPSUIRSRS="v1.2"; VCIPSUIRSRS="3"
IDGPPM="GPayPowerMenu"; VIPGPPM="v1.1"; VCIPGPPM="2"
IDFDM="ForceDarkMode"; VIPFDM="v1.1"; VCIPFDM="2"
IDAS="AnimationScale"; VIPAS="v1.2"; VCIPAS="3"
#Launchers: Shady/Lawnchair/Sushi/Ortus
IDSLSHADY="Systemless_ShadyLauncher"; VIPSLSHADYQ="v1.5"; VCIPSLSHADYQ="15"; VIPSLSHADYR="v2021.11.28"; VCIPSLSHADYR="20211128"
IDSLLAWN="Systemless_Lawnchair"; VIPSLLAWN="v3.3"; VCIPSLLAWN="24"; VIPSLLAWNA="14.0.0 (a004df3)"
IDSLSUSHI="Systemless_SushiLauncher"; VIPSLSUSHI="v1.5"; VCIPSLSUSHI="6"; VIPSLSUSHIA="v5.0"
IDSLORTUS="Systemless_OrtusLauncher"; VIPSLORTUS="v1.0"; VCIPSLORTUS="1"; VIPSLORTUSA="v2.0"
#Audio: VFX(P)/DOLBY/AIST/SAQ/SIB/AML/ALCF/VS
IDVFX="V4AFX"; IDAVFX="ViPER4AndroidFX ViPER4AndroidFX-Legacy ViPER4AndroidXHiFi viper4magisk ViPER4Android-RE"; VIPVFX="v2.6"; VCIPVFX="17"
IDVFXDAK="V4AFXDAK"; IDAVFXDAK="V4AFXPresets"; VIPVFXDAK="v1.9"; VCIPVFXDAK="10"
IDDA="DolbyAtmos"; VIPDA="v2.7"; VCIPDA="18"
IDAIST="AIST"; VIPAIST="v1.9"; VCIPAIST="1910"
IDSAQ="SystemAudioQuality"; IDASAQ="systemaudioquality2"; VIPSAQ="v2.3"; VCIPSAQ="14"
IDSIBS="SystemIncreaseBitrate"; IDASIBS="IncreaseBitrate"; VIPSIBS="v1.6"; VCIPSIBS="7"
IDAML="AML"; VIPAML="v4.6"; VCIPAML="46"
IDALCF="ALCF"; VIPALCF="v1.5"; VCIPALCF="6"
IDVS="VolumeSteps"; VIPVS="v1.2"; VCIPVS="3"
#AdBlock: Hosts Files
IDDAB="DisableAdBlocker"; VIPDAB="v1.0"; VCIPDAB="1"
IDVAAH="AdAwayHosts"; VIPVAAH="v5.9"; VCIPVAAH="50"
IDVSH="SystemlessHostsUnified"; VIPVSH="v17.0-220116"; VCIPVSH="170"
IDEH="EnergizedHosts"; VIPEH="v296.21"; VCIPEH="11"
#Net: GPS/WIFI/TTL/DNS/APAUSBTF
IDGPSP="GPSPatcher"; IDAGPSP="optmizedgpsconf"; VIPGPSP="v1.1"; VCIPGPSP="2"
IDWIFIP="WIFIPatcher"; IDAWIFIP="wifi-bonding"; VIPWIFIP="v1.4"; VCIPWIFIP="5"
IDTTLF="NFQTTL"; IDATTLF="nfqttl"; VIPTTLF="v2.8"; VCIPTTLF="19"
IDNT="NetworkTweak"; VIPNT="v6.0"; VCIPNT="60"
IDAPAUSBTF="APAndUSBTetheringFix"; IDAAPAUSBTF="APAUSBTF USBTF"; VIPAPAUSBTF="v1.0"; VCIPAPAUSBTF="1"
#Utilities: BB/SELS/CC/MMFR/Detach/PIF/JITC
IDBBB="BrutalBusyBox"; IDABBB="busybox-ndk busybox-brutal BuiltIn-BusyBox"; VIPBBB="v1.36.0.1"; VCIPBBB="13601"
IDSELS="SELinuxSwitcher"; IDASELS="SeLinuxChanger SELinuxChanger"; VIPSELS="v1.4"; VCIPSELS="5"
IDCC="CacheCleaner"; VIPCC="v3.6"; VCIPCC="27"
IDMMFR="MagiskManagerForRecovery"; IDAMMFR="mm MMFR"; VIPMMFR="v1.4"; VCIPMMFR="5"
IDDETACH="zygisk-detach" VIPDETACH="v1.14.0"; VCIPDETACH="17"
IDDETACHA="zygisk-detach-app" VIPDETACHA="v1.13.0"; VCIPDETACHA="16"
IDPIF="playintegrityfix" VIPPIF="v15.9.6"; VCIPPIF="15960"
IDJITC="JustInTimeCompiler"; IDAJITC="JIT PackageCompileSpeed"; VIPJITC="v1.1"; VCIPJITC="2"
#Other: FA/LED/FSFM/PSS/UAA/SBU/SHS
IDFPA="FingerprintActions"; VIPFPA="v1.2"; VCIPFPA="3"
IDLEDLO="LEDLightOff"; IDALEDLO="ChargingLedLightOff ChargingLEDLightOff"; VIPLEDLO="v1.3"; VCIPLEDLO="4"
IDLEDLA="LEDLightAnimation"; VIPLEDLA="v1.2"; VCIPLEDLA="3"
IDFSLFM="FixSoftloopForMiui"; IDAFSLFM="FSFM"; VIPFSLFM="v1.2"; VCIPFSLFM="3"
IDPSS="ProximitySensorSwitcher"; IDAPSS="ProximitySensorDisabler"; VIPPSS="v1.0"; VCIPPSS="1"
IDUAA="UnfreezeAllApplications"; VIPUAA="v1.0"; VCIPUAA="1"
#Tweaks: FGS/EHAP/BP/KL/4XMSAA/HWO/UGMSD/USGP
IDFGS="ForceGoogleSync"; VIPFGS="v1.1"; VCIPFGS="2"
IDEHAP="EnablingHiddenApiPolicy"; VIPEHAP="v1.2"; VCIPEHAP="3"
IDFUSS="ForceUnknownSourcesSwitcher"; IDAFUSS="ForceInstallAppsFromUnknownSources FIAFUS AFUSS"; VIPFUSS="v1.3"; VCIPFUSS="4"
IDMUS="MultiUsersSwitcher"; IDAMUS="MultiUsersChanger SingleUserMod SingleUserEnabler DisableMultiUsers"; VIPMUS="v1.3"; VCIPMUS="4"
IDBPT="BuildPropTweaks"; VIPBPT="v2.6"; VCIPBPT="17"
IDKL="KillLogger"; IDAKL="killlogger killlogger++"; VIPKL="v2.2"; VCIPKL="13"
IDF4XMSAAS="Force4XMSAASwitcher"; IDAF4XMSAAS="ForceMSAASwitcher"; VIPF4XMSAAS="v1.1"; VCIPF4XMSAAS="2"
IDFHWOS="ForceHWOverlaysSwitcher"; IDAFHWOS="ForceDisableHWOverlays"; VIPFHWOS="v1.2"; VCIPFHWOS="3"
IDFDEVADB="ForceDEVADB"; VIPFDEVADB="v1.8"; VCIPFDEVADB="9"
IDUSBSUC="USBScreenUnlockedConfig"; IDAUSBSUC="USBSUC"; VIPUSBSUC="v1.1"; VCIPUSBSUC="2"
IDFULIRS="FaceUnLockIRSwitcher"; IDAFULIRS="FaceUnLockIRChanger"; VIPFULIRS="v2.7"; VCIPFULIRS="18"
IDFDPP="ForceDisablingPlayProtect"; VIPFDPP="v1.0"; VCIPFDPP="1"
IDUGMSD="UniversalGMSDoze"; IDAUGMSD="universal-gms-doze"; VIPUGMSD="v1.9.1"; VCIPUGMSD="191"
IDUSGP="PixelifyPhotos"; VIPUSGP="1.1-stable"; VCIPUSGP="002"
IDGPUR="GPURendering"; VIPGPUR="v1.2"; VCIPGPUR="3"
IDSBT="ShutdownBatteryTemperature"; VIPSBT="v1.0"; VCIPSBT="1"
IDFI="ForceIdle"; VIPFI="v1.1"; VCIPFI="2"
} #

{ #Functions

AIOPFMD () {
BOOT_DETECTED
APMSGASD
PARTITION_AND_MOUNTS
IMPORTANT_VARIABLES
if [ -d $TMPDIR ] || [ -d $DEVTMPDIR ]; then rm -rf $TMPDIR $DEVTMPDIR; fi
mkdir -p $TMPDIR $DEVTMPDIR $PLOGS
getprop | sed "s/\]: \[/=/g;s/\]//g;s/\[//g" > $DEVTMPDIR/all.prop
CHECKER "-miui -bb -arch -sel -soc -gapps -av -magisk"
PATCHMODE
UIP "Copy AIOPFMD To TMPDIR$MSGPMODE"
(unzip -oq $ZIPFILE BB.zip Addons.tar.xz -d $DEVTMPDIR 2>/dev/null
unzip -oq $BB.zip -d $DEVTMPDIR 2>/dev/null; rm -f $BB.zip
chmod -R 0777 $TMPDIR $DEVTMPDIR $PLOGS
cp -f $BB/busybox-$ARCH $BB/busybox
$TAR -xf $ADDONS.tar.xz -C $DEVTMPDIR; rm -f $ADDONS.tar.xz) &
PRESETS
END
}

BOOT_DETECTED () {
[ -z $BOOTMODE ] && ps | grep zygote | grep -qv grep && BOOTMODE=true
[ -z $BOOTMODE ] && ps -A 2>/dev/null | grep zygote | grep -qv grep && BOOTMODE=true
[ -z $BOOTMODE ] && BOOTMODE=false
}

APMSGASD () {
MSGSD="•"
MSGCS="•••••••••••••••••••••••••••••••••••••••••••••••••"
if $BOOTMODE; then
MSGVU="▲ ►"; MSGVD="▼ ►"
else
MSGVU="+ >"; MSGVD="- >"
fi
MSGEFTC="(\)"
MSGNIS="(|)"
MSGNUS="(/)"
MSGEEFTC="(|\)"
MSGEND="(//)"
MSGRI="(R)"
MSGL="(L)"
MSGIP="(I)"
MSGDI="Install Done"
MSGDRM="Removing Done"
MSGDRP="Replace Done"
MSGDRS="Restore Done"
MSGFI="Found Install"
MSGPNF="Patching Needed Files..."
MSGFFAP="Files Found And Patched"
MSGIPL="$MSGIP $MSGL"
MSGPMIP="Patching..."
MSGRMIP="Removing..."
MSGOANF="Other App Not Found"
MSGPW="Please Wait..."
MSGSAPW="Search App, $MSGPW"
MSGIPI="$MSGIP"
MSGWDI="Community"
MSGSC="Start Compile"
MSGEC="End Compile"
MSGPMODE="$MSGSD Opens Some Test Items/Patches - Set: U(ser) Or D(ebug)"
MSGLEDCOLOR="$MSGSD This Is The Color Of Your Diode - Set: R(ed), G(reen), B(lue) Or W(hite)"
MSGHFMODE="$MSGSD Adds Tactile Feedback To Patch Selections - Set: Values From 1 To 255 For Weak/Strong Vibration"
MSGHFSMODE="$MSGSD Sets Values From HFMODE Not To Duration, But To Enable And/Or Activate - Set: false Or true"
MSGENDMODE="$MSGSD Allows You To Return To The Beginning Of The Patch Without Reselecting If You Missed Something - Set: false Or true"
MSGMMUPDC="$MSGSD Adds Version Checking Of Magisk Modules Between Patch And Installed - Set: false Or true"
}

IS_MOUNTED () {
grep -q " `readlink -f $1` " /proc/mounts 2>/dev/null
return $?
}

PARTITION_AND_MOUNTS () {
if $BOOTMODE; then
MSGCS
else
DABP=false
if [ -n "$(cat /proc/cmdline | grep slot_suffix)" ]; then
DABP=true; SYSTEM_MOUNT="/system"; SYSTEM="$SYSTEM_MOUNT/system"; VENDOR="/vendor/vendor"
elif [ -n "$(cat /etc/fstab | grep /system_root)" ]; then
SYSTEM_MOUNT="/system_root"; SYSTEM="$SYSTEM_MOUNT/system"; VENDOR="/vendor"
else
SYSTEM_MOUNT="/system"; SYSTEM="$SYSTEM_MOUNT"; VENDOR="/vendor"
fi
for p in "$SYSTEM_MOUNT" "$VENDOR" "/cust" "/system_ext" "/product" "/odm"; do
if [ -d "$p" ] && grep -q "$p" "/etc/fstab"; then
MOUNTS="$MOUNTS $p"
fi
done
for m in $MOUNTS; do
if IS_MOUNTED "$m"; then umount "$m"; fi
mount "$m"
mount -o remount,rw "$m"
done
grep -q "$SYSTEM_MOUNT.*\sro[\s,]" /proc/mounts && mount -o remount,rw $SYSTEM_MOUNT
UIP -s "Mounting Partitions"
fi
if [ -f /system/system/build.prop ]; then SYSTEM="/system/system"; elif [ -f /system_root/system/build.prop ]; then SYSTEM="/system_root/system"; elif [ -f /system/build.prop ]; then SYSTEM="/system"; fi
if [ $BOOTMODE != true ] && [ -n "$(cat /etc/fstab | grep /vendor)" ]; then :; elif [ $BOOTMODE != true ] && [ -d $SYSTEM/vendor ]; then VENDOR="$SYSTEM/vendor"; else VENDOR="/vendor"; fi
}

IMPORTANT_VARIABLES () {
if $BOOTMODE; then
if [ -d "$MAGISKTMP/mirror/" ]; then
MAGISKMP="$MAGISKTMP/mirror"
elif [ -d "$MAGISKTMP/.magisk/mirror/" ]; then
MAGISKMP="$MAGISKTMP/.magisk/mirror"
else
UIP "Warning! Magisk Mirror Not Found!"; ENDMODE=false; END
fi
else
MAGISKMP=""
fi
SYSTEMRO=false
if $BOOTMODE; then mount -o rw,remount $MAGISKMP/vendor; touch $MAGISKMP/vendor/etc/test; fi
if $BOOTMODE && [ ! -f $MAGISKMP/vendor/etc/test ]; then SYSTEMRO=true; else rm -f $MAGISKMP/vendor/etc/test; fi
MIPSV="/system/vendor"
IPSB="$SYSTEM/bin"; MIPSB="/system/bin"
IPSXB="$SYSTEM/xbin"; MIPSXB="/system/xbin"
IPSA="$SYSTEM/app"; MIPSA="/system/app"
IPSPA="$SYSTEM/priv-app"; MIPSPA="/system/priv-app"
IPSE="$SYSTEM/etc"; MIPSE="/system/etc"
IPSEI="$IPSE/init"; MIPSEI="$MIPSE/init"
IPSES="$IPSE/sysconfig"; MIPSES="$MIPSE/sysconfig"
IPSEP="$IPSE/permissions"; MIPSEP="$MIPSE/permissions"
IPSEDP="$IPSE/default-permissions"; MIPSEDP="$MIPSE/default-permissions"
IPSEV="$IPSE/vintf"; MIPSEV="$MIPSE/vintf"
IPSEDF="$IPSE/device_features"; MIPSEDF="$MIPSE/device_features"
IPSED="$IPSE/dolby"; MIPSED="$MIPSE/dolby"
IPSL="$SYSTEM/lib"; MIPSL="/system/lib"
IPSL64="$SYSTEM/lib64"; MIPSL64="/system/lib64"
IPSLS="$IPSL/soundfx"; MIPSLS="$MIPSL/soundfx"
IPSLS64="$IPSL64/soundfx"; MIPSLS64="$MIPSL64/soundfx"
IPSAD="$SYSTEM/addon.d"; MIPSAD="/system/addon.d"
IPSBP="$SYSTEM/build.prop"; MIPSBP="/system/build.prop"
IPSSP="$SYSTEM/product"; MIPSSP="/system/product"
IPSSPBP="$IPSSP/build.prop"; MIPSSPBP="$MIPSSP/build.prop"
IPSSPA="$IPSSP/app"; MIPSSPA="$MIPSSP/app"
IPSSPPA="$IPSSP/priv-app"; MIPSSPPA="$MIPSSP/priv-app"
IPSSPE="$IPSSP/etc"; MIPSSPE="$MIPSSP/etc"
IPSSPES="$IPSSPE/sysconfig"; MIPSSPES="$MIPSSPE/sysconfig"
IPSSPEP="$IPSSPE/permissions"; MIPSSPEP="$MIPSSPE/permissions"
IPSSE="$SYSTEM/system_ext"; MIPSSE="/system/system_ext"
IPSSEPE="$IPSSE/etc"; MIPSSEPE="$MIPSSE/etc"
IPSSEPES="$IPSSEPE/sysconfig"; MIPSSEPES="$MIPSSEPE/sysconfig"
IPSSEPEP="$IPSSEPE/permissions"; MIPSSEPEP="$MIPSSEPE/permissions"
IPSSEA="$IPSSE/app"; MIPSSEA="$MIPSSE/app"
IPSSEPA="$IPSSE/priv-app"; MIPSSEPA="$MIPSSE/priv-app"
IPSFW="$SYSTEM/framework"; MIPSFW="/system/framework"
IPSPO="$IPSSP/overlay"; MIPSPO="$MIPSSP/overlay"
IPSO="$SYSTEM/overlay"; MIPSO="/system/overlay"
IPSUKL="$SYSTEM/usr/keylayout"; MIPSUKL="/system/usr/keylayout"
IPSPM="$IPSSP/media"; MIPSPM="$MIPSSP/media"
IPSPMAU="$IPSPM/audio/ui"; MIPSPMAU="$MIPSPM/audio/ui"
IPSM="$SYSTEM/media"; MIPSM="/system/media"
IPSMAU="$IPSM/audio/ui"; MIPSMAU="$MIPSM/audio/ui"
IPSF="$SYSTEM/fonts"; MIPSF="/system/fonts"
IPVBP="$VENDOR/build.prop"; MIPSVBP="$MIPSV/build.prop"
IPVE="$VENDOR/etc"; MIPSVE="$MIPSV/etc"
IPVEV="$IPVE/vintf"; MIPSVEV="$MIPSVE/vintf"
IPVED="$IPVE/dolby"; MIPSVED="$MIPSVE/dolby"
IPVL="$VENDOR/lib"; MIPSVL="$MIPSV/lib"
IPVL64="$VENDOR/lib64"; MIPSVL64="$MIPSV/lib64"
IPVLRA="$IPVL/rfsa/adsp"; MIPSVLRA="$MIPSVL/rfsa/adsp"
IPVLS="$IPVL/soundfx"; MIPSVLS="$MIPSVL/soundfx"
IPVLS64="$IPVL64/soundfx"; MIPSVLS64="$MIPSVL64/soundfx"
IPVO="$VENDOR/overlay"; MIPSVO="$MIPSV/overlay"
IPVUKL="$VENDOR/usr/keylayout"; MIPSVUKL="/vendor/usr/keylayout"
IPVA="$VENDOR/app"; MIPSVA="$MIPSV/app"
IPVPA="$VENDOR/priv-app"; MIPSVPA="$MIPSV/priv-app"
IPVB="$VENDOR/bin"; MIPSVB="$MIPSV/bin"
IPVBHW="$IPVB/hw"; MIPSVBHW="$MIPSVB/hw"
IPVEDF="$IPVE/device_features"; MIPSVEDF="$MIPSV/device_features"
IPDA="/data/app"
IPDD="/data/data"
IPDS="/data/system"
IPDSDE="/data/system_de"
IPDSU="$IPDS/users/0"
IPDSUDE="/data/user_de"
IPDSNS="$IPDS/netstats"
IPDM="/data/misc"
IPDMDE="/data/misc_de"
IPDRESC="/data/resource-cache"
IPDFF="/data/fonts/files"
IPDFC="/data/fonts/config"
STORAGE="/data/media/0"
ACXML="$(find $SYSTEM $VENDOR -type f -name "audio_configs*.xml")"
APIXML="$(find $SYSTEM $VENDOR -type f -name "audio_platform_info*.xml")"
AECONFXML="$(find $SYSTEM $VENDOR -type f -name "*audio_effects*.conf" -o -name "*audio_effects*.xml")"
MPATHS="$(find $SYSTEM $VENDOR -type f -name "*mixer_paths*.xml")"
BTCSCONF="$(find $SYSTEM $VENDOR -type f -name "bt_configstore.conf")"
BTSCONF="$(find $SYSTEM $VENDOR -type f -name "bt_stack.conf")"
MCGAX="$(find $SYSTEM $VENDOR -type f -name "media_codecs*audio.xml")"
AIPAOPCONF="$(find $SYSTEM $VENDOR -type f -name "*audio_io_policy*.conf" -o -name "*audio_output_policy*.conf")"
APCXML="$(find $SYSTEM $VENDOR -type f -name "*audio_policy_configuration*.xml")"
A2DPXML="$(find $SYSTEM $VENDOR -type f -name "a2dp*.xml")"
BTQTIXML="$(find $SYSTEM $VENDOR -type f -name "bluetooth*.xml")"
USBXML="$(find $SYSTEM $VENDOR -type f -name "usb*.xml")"
ACCXML="$(find $SYSTEM $VENDOR -type f -name "audio_cloud_control*.xml")"
STPIXML="$(find $SYSTEM $VENDOR -type f -name "sound_trigger_platform_info*.xml")"
MPXML="$(find $SYSTEM $VENDOR -type f -name "media_profiles*.xml")"
MCXML="$(find $SYSTEM $VENDOR -type f -name "media_codecs.xml")"
WCNSQCCFGI="$(find $SYSTEM $VENDOR -type f -name "WCNSS_qcom_cfg.ini")"
GPSCONF="$(find $SYSTEM $VENDOR -type f -name "gps.conf")"
SDAXXML="$IPSED/*.xml"; VDAXXML="$IPVED/*.xml"
SDEVFE="$IPSEDF/*.xml"; VDEVFE="$IPVEDF/*.xml"
XMLGLOBAL="$IPDSU/settings_global.xml"; XMLSECURE="$IPDSU/settings_secure.xml"; XMLSYSTEM="$IPDSU/settings_system.xml"
SPGLOBAL="settings put global"; SPSECURE="settings put secure"; SPSYSTEM="settings put system"
SGGLOBAL="settings get global"; SGSECURE="settings get secure"; SGSYSTEM="settings get system"
BATTERYSTAT="/sys/class/power_supply/battery/uevent"
if [ -f $STORAGE/PATCHMODE* ]; then PATCHMODEFILE="$(find $STORAGE/PATCHMODE*)"; FINDPATCHMODE=true; else for f in $(ls $STORAGE); do if [ -f $STORAGE/$f/PATCHMODE* ]; then PATCHMODEFILE="$(find $STORAGE/$f/PATCHMODE*)"; FINDPATCHMODE=true; break; else FINDPATCHMODE=false; fi; done; fi; if [ $FINDPATCHMODE != true ]; then touch $STORAGE/PATCHMODE.conf; PATCHMODEFILE="$STORAGE/PATCHMODE.conf"; fi
PMODE="$(GET_FILE_PROP -pm "PMODE")"
HFDURATION="$(GET_FILE_PROP -pm "HFMODE")"
HFSWAPMODE="$(GET_FILE_PROP -pm "HFSMODE")"
LEDCOLOR="$(GET_FILE_PROP -pm "LEDCOLOR")"
ENDMODE="$(GET_FILE_PROP -pm "ENDMODE")"
MMUPDC="$(GET_FILE_PROP -pm "MMUPDC")"
PROPFILES="$IPSBP $IPVBP"
GBFVXML="$IPDD/com.google.android.inputmethod.latin/shared_prefs/flag_value.xml"
SYSCL="/sys/class/leds"
LEDLSC="chmod 0755 /sys/class/*/*/* /sys/module/*/*/*"
LEDMBRED="$SYSCL/red/max_brightness"
LEDMBGREEN="$SYSCL/green/max_brightness"
LEDMBBLUE="$SYSCL/blue/max_brightness"
LEDMBWHITE="$SYSCL/white/max_brightness"
LEDRED="$SYSCL/red/brightness"
LEDGREEN="$SYSCL/green/brightness"
LEDBLUE="$SYSCL/blue/brightness"
LEDWHITE="$SYSCL/white/brightness"
FLASHLIGHT="$SYSCL/flashlight/brightness"
BUTTONBACKLIGHT="$SYSCL/button-backlight/brightness"
if [ -d $IPSPO ] && [ -d $IPVO ]; then IPPSO="$IPSPO"; MIPPSO="$MIPSPO"; IPPVO="$IPVO"; MIPPVO="$MIPSVO"; elif [ -d $IPSPO ]; then IPPSO="$IPSPO"; MIPPSO="$MIPSPO"; IPPVO="$IPSPO"; MIPPVO="$MIPSPO"; elif [ -d $IPSO ]; then IPPSO="$IPSO"; MIPPSO="$MIPSO"; IPPVO="$IPSO"; MIPPVO="$MIPSO"; fi
if [ -d $IPSMAU ]; then IPPMU="$IPSMAU"; MIPPMU="$MIPSMAU"; elif [ -d $IPSPMAU ]; then IPPMU="$IPSPMAU"; MIPPMU="$MIPSPMAU"; fi
if [ -d $IPSPM ]; then IPPM="$IPSPM"; MIPPM="$MIPSPM"; elif [ -d $IPSM ]; then IPPM="$IPSM"; MIPPM="$MIPSM"; fi
for f in Fox TWRP SHRP PBRP; do if [ -d $STORAGE/$f ]; then PLOGS="$STORAGE/$f/AIOLogs/$( date +"%Y-%m" )"; FPLOGS=true; break; else FPLOGS=false; fi; done; if [ $FPLOGS != true ]; then PLOGS="$STORAGE/AIOLogs/$( date +"%Y-%m" )"; fi
if [ ! -d $IPSXB ] && [ $BOOTMODE != true ]; then mkdir -p $IPSXB; IPPSXB=$IPSXB; IPPSXBM=$MIPSXB; BINPATH=xbin; elif [ ! -d $IPSXB ] && $BOOTMODE; then IPPSXB=$IPSB; IPPSXBM=$MIPSB; BINPATH=bin; else IPPSXB=$IPSXB; IPPSXBM=$MIPSXB; BINPATH=xbin; fi
}

ALLLIST () {
case $1 in
-m) MIUILIST="
Calculator
Calendar
Contacts
DeskClock
FileExplorer
FileExplorerGlobal
Mms
";;
-s) STOCKLIST="
404Clock
AEXPapers
AICorePrebuilt
ANGLE
APlayer
ARCore
ARDrawing
AREmoji
ARZone
AbleMusic
AboutBliss
Abstruct
AccessibilityMenu
AccuweatherPhone2015_MASS_HD_SWS
AdAway
Aegis
AiWallpapers
AirDots
AirDotsPlugin
AmbientStreaming
AnalyticsCore
AncientClockWidget
AndroidAutoPrebuilt
AndroidAutoStub
AndroidAutoStubPrebuilt
AndroidForWork
AudioFX
Auxio
AvatarEmojiSticker_Palette
AwakenWallpaperStub
Backgrounds
BasicDreams
BatteryTile
BetterBug
BetterBugStub
BlissUpdater
BookmarkProvider
Books
BooksPhone
BooksStub
Browser
Browser2
BrowserXposed
BtHelper
CMFileManager
CalculatorGoogle
CalculatorGooglePrebuilt
CalendarGoogle
CalendarGooglePrebuilt
CameraExtensionsProxy
CarHomeGoogle
CarrierMetrics
CarrierServices
CatchLog
CbrsNetworkMonitor
CellBroadcastApp
CellBroadcastReceiver
ChocoEUKor
Chrome
Chrome-Stub
ChromeCustomizations
ClockPackage_MASS_Le
CloudPrint
CloudPrint2
ColtPapers
ConnMO
ConnMetrics
Covers
CtsShimPrivPrebuilt
Currents
DCMO
DMService
DerpWalls
DeskClockGoogle
DesktopMode
DeviceIntelligenceNetworkPrebuilt
DevicePolicyPrebuilt
DiagMonAgent
DiagnosticsToolPrebuilt
Dialer
DigitalClockEasy_L
DigitalClock_L
DotFEWallpapers
DotGallery
DotWallpapers
Drive
DualClockDigital_L
DuckDuckGo
Duo
DynamicSystemInstallationService
EasterEgg
EasymodeContactsWidget
EditorsDocs
EditorsDocsStub
EditorsSheets
EditorsSheetsStub
EditorsSlides
EditorsSlidesStub
Eleven
Email
EmergencyInfo
EmergencyInfoGms
EmergencyInfoGoogleNoUi
EngineerMode
Etar
EvoEgg
ExactCalculator
Excel_SamsungStub
Exchange2
FBAppManager_NS
FBInstaller_NS
FBServices
FDroid
FDroidPrivilegedExtension
FM
FM2
FMRadio
FM_TEST
Facebook_stub
FilesPrebuilt
Firewall
FitnessPrebuilt
Focus
FotaAgent
FuseWalls
GCS
Galaxy4
GalaxyApps
Gallery
Gallery2
GalleryGo
GalleryGoPrebuilt
GalleryGoogle
GalleryPrebuilt
GameCenter
GameCenterGlobal
Gboard
GeminiPrebuilt
GenieWidget
Glimpse
GlobalTrendNews
GlobalUserGuide
Gmail
Gmail2
GoogleCalendar
GoogleCloudPrint
GoogleContacts
GoogleDialer
GoogleEars
GoogleEarth
GoogleFeedback
GoogleHangouts
GoogleHindiIME
GoogleHome
GoogleJapaneseInput
GoogleKeep
GoogleKeyboard
GoogleLatinIme
GoogleMusic
GoogleNow
GoogleNowVoiceSearch
GoogleOne
GooglePay
GooglePinyinIME
GooglePlus
GooglePrintRecommendationService
GoogleQuickSearchBox
GoogleSearch
GoogleTTS
GoogleVrCore
GoogleZhuyinIME
Gramophone
HTMLViewer
Hangouts
HangoutsDialer
Health
HealthConnectPrebuilt
HelpRtcPrebuilt
HoloSpiralWallpaper
HotwordEnrollment
HotwordEnrollmentOKGoogle*
HotwordEnrollmentXGoogle*
HybridAccessory
HybridPlatform
HybridRadio2015
HyconWallpapers
IdMipay
InMipay
Jelly
Jellyfish
Joyose
KLMSAgent
Keep
KidsSupervisionStub
KimciRecorder
KoreanIME
KoreanIMEStub
LPaper-v1.0.0-release
LPaper-v2.0-release
LatinIME
LatinIMEGooglePrebuild
LatinIMEGooglePrebuilt
LatinImeDictionaryPack
LatinImeGoogle
LatinImeGoogleWithLatinIME
LatinImeTutorial
Lawnfeed
Leaflet
Lens
LensAppStub
LogViewer
MSA-Global
MSSkype_stub
MaestroPrebuilt
Magazines
Maps
MatLog
MatchmakerPrebuilt
MatchmakerPrebuiltPixel4
Megogo
Megogo_vender
Messages
Messaging
MiBrowser
MiBrowserGlobal
MiDrive
MiDrop
MiGalleryLockscreen
MiHealth
MiMover
MiMusic
MiPicks
MiService
MiShare
MiVideo
Mimoji
MiuiBugReport
MiuiCompass
MiuiScanner
MiuiSuperMarket
MiuiVideo
MiuiVideoGlobal
MiuiVideoPlayer
MozillaNlpBackend
MtkFMRadio
Music
Music2
MusicFX
MusicPlayerGO
MyVerizonServices
NeMate
Netflix
Netflix_activation
Netflix_activationCommon
Netflix_stub
NewsWeather
Newsstand
NewsstandStub
NextPay
NexusLauncherIcons
NexusWallpapersStubPrebuilt2017
NexusWallpapersStubPrebuilt2019
NezukoMusic
NoiseField
Notes
NovaBugreportWrapper
OBDM_Permissions
ONESettings
OPFileManager
OPIconpackOnePlus
OPIconpackOxygen
OPIconpackRound
OPScreenRecord
OPScreenRecorder
OPWeather
OPWidget
OccamQuickOffice
OdadPrebuilt
OemDmTrigger
OmniJaws
OmniSwitch
OneDrive
OneDrive_Samsung_v3
OneNote
OneOSLogcat
OneOSSTATS
OneOSSpace
Opera
OperaMax
OperaMax_PreinstallProvider
Opera_data
Ornament
Panic
Papers
ParanoidPapers
PartnerBookmarksProvider
PaymentService
PdfViewer
PersonalAssistant
PersonalAssistantGlobal
PhaseBeam
Phonograph
PhotoTable
Photos
PicoTts
PixelLiveWallpaperPrebuilt
PixelWallpapers2020
PixelWallpapers2021
PixelWallpapers2022
PixelWallpapers2023
PlayGames
PlusOne
Podcasts
PowerPoint_SamsungStub
PrebuiltBugle
PrebuiltBugleStub
PrebuiltDeskClockGoogle
PrebuiltEmailGoogle
PrebuiltExchange3Google
PrebuiltGmail
PrebuiltGoogleTelemetryTvp
PrebuiltKeep
PrebuiltKeepStub
PrebuiltNewsWeather
Prospect
PulseMusic
PureBrowser
QPGallery
QuickAccessWallet
QuickOffice
QuickSearchBox
RRWallpapers
Recorder
RecorderPrebuilt
RetroMusicPlayer
RetroMusicPlayerPrebuilt
RevengeMessages
RevengeOSCalculator
Ripple
RockClient
RomStats
RoseEUKor
SBrowser_3.0.38_MASS_LATEST
SCONE
SOAgent
SPPPushClient_Prod
SPenSdk3
SPlannerWidget_Essential
SPlanner_Essential
SafetyHubPrebuilt
SamsungIMEv2
SamsungSans
SamsungTTS
ScribePrebuilt
SecCalculator2_L
SecEmailComposer-mass
SecEmailProvider-mass
SecEmailSync-mass
SecEmailUI-mass
SecEmailWidget-mass
SecHTMLViewer
SecMyFiles2015_ESS
SecSetupWizard2015
SecurityLogAgent
ShiftPapers
Showcase
SimIcons
Simple-Calendar
SimpleCalendar
SimpleGallery
SimpleGalleryPro
SmartCookieWeb
SmartManagerSDK
SmartManager_OLEDHD
SnapdragonMusic
SoundAmplifierPrebuilt
SparkWallpaperStub
SpeechServicesByGoogle
SprdQuickSearchBox
SprintDM
SprintHM
StagWalls
StatusBarLyricExt
StickerFaceARAvatar
Street
Superiorwalls
SwitchAccessPrebuilt
Talk
TalkbackSE
TeamOctavi
Terminal
TipsPrebuilt
TouchAssistant
Traceur
Translate
TranslatePrebuilt
Turbo
TurboAdapter
TurboAdapter_NoBatt
TurboPrebuilt
Tycho
UPTsmService
USCCDM
Updates
VZWAPNLib
Velvet
Velvet_update
ViMusic
Via
ViaBrowser
Videos
VinylMusicPlayer
VoiceAccessPrebuilt
VoiceSearch
VoiceSearchStub
VzwOmaTrigger
Wallet
Wallpaper
WallpaperEffect
WallpaperEmojiPrebuilt
WallpapersBReel2017
WallpapersBReel2019
WallpapersBReel2020
WallpapersBReel2020a
WarpShare
WaveWidget
WeatherDaemon
WeatherPixelPrebuilt
WeatherTile
WebManual
Wellbeing
WellbeingPrebuilt
Word_SamsungStub
XiaomiKeyboard
YGPS
YTMusic
YellowPage
YouDaoEngine
YouTube
YouTubeMusicPrebuilt
YouTubeVanced
ZVideoMass
app-assist-light-release
arcore
bcr
clock-widgets-release
com.facebook.appmanager
com.facebook.services
com.facebook.system
com.google.ar.core
com.sonymobile.infoapp
com.sonymobile.support
crDroidMusic
facebook-appmanager
facebook-installer
facebook-services
googleconf
greenguard
iWnnIME
iWnnIME_Kbd_White
linktowindows
mab
madLauncher
madWallpapers
messaging
obdm_stub
stats
talkback
wellbeingconf
yetCalc
";;
-e) EXPERIMENTALLIST="
BuiltInPrintService
DeviceAsWebcam
DevicePersonalizationPrebuiltPixel2020
DevicePersonalizationPrebuiltPixel2021
DevicePersonalizationPrebuiltPixel2022
DevicePersonalizationPrebuiltPixel4
DocumentsUI
DocumentsUIGoogle
EuiccGoogle
Markup
MarkupGoogle
ParallelSpace
ParallelSpacePrebuilt
PifPrebuilt
PlayAutoInstallConfig
PowerOffAlarm
PrintSpooler
SPrintSpooler
SPrintSpoolerLMR1
SoundPicker
SoundPickerPrebuilt
Stk
Stk2
Tag
TagGoogle
TouchGestures
TrichromeLibrary
TrichromeLibrary-Stub
WallpaperPickerGoogle
WallpaperPickerGooglePrebuilt
WallpaperPickerGoogleRelease
WallpaperPicker_Zero2
WebView
WebViewGoogle
WebViewGoogle-Stub
WebViewStub
";;
-l) LAUNCHERLIST="
ArrowLauncher
AsusLauncher
AsusLauncherDev
DerpLauncherQuickStep
EasyLauncher2_Zero
EnigmaLauncher
EvolutionXLauncherQuickStep
FluidLauncherQuickStep
GhostLauncherQuickStep
Launcher3
Launcher3QuickStep
Launcher3QuickStepMock
Lawnchair
LawnchairQuickStep
MatrixxLauncherQuickStep
NeLauncher
NexusLauncher
NexusLauncherPrebuilt
NexusLauncherRelease
NothingLauncher3
NusantaraLauncherQuickStep
OPLauncher
OPLauncher2
OPLauncherRelease
OPLauncherReleases
OrtusLauncher
OrtusLauncherQuickStep
ParanoidQuickStep
PixelLauncher
RevengeLauncherQuickStep
ShadyLauncher
ShadyQuickStep
SuperiorLauncherQuickStep
TWLauncherESS
Trebuchet
TrebuchetQuickStep
";;
-c) CAMERALIST="
Aperture
ApertureLensLauncher
Camera
Camera2
CameraGo
DevCamera
Flash
FlashLensLauncher
GCam
GCamGOPrebuilt
GCamGo
Gcam
GoogleCamera
GoogleCameraGo
GoogleCameraLegacy
GrapheneCamera
LegacyCamera
Snap
madCamera
";;
-mml) MMLAUNCHERLIST="
AfterLifeLauncher_Port
AlphaDroidLauncher_Port
Amr_Launcher
AncientOSLauncher_Port
BananaDroidLauncher_Port
BananaLauncher_Port
CherishLauncher_Port
ChostLauncher_Port
CorvusOSLauncher_Port
DerpLauncher_Port
ElixirLauncher_Port
EvolutionXLauncher_Port
ExtendedOSLauncher_Port
GhostLauncher_Port
Lawnchair
Lawnchair_Extra
MatrixxLauncher_Port
MotoLauncher
NusantaraLauncher_Port
NusantaraOSLauncher_Port
OctaviLauncher_Port
OneUIHome
OrtusLauncher_Port
PPL
ParanoidLauncher_Port
PixelLauncher_Extra
PixeldustLauncher_Port
SparkOSLauncher_Port
SuperiorLauncher_Port
SuperiorOSLauncher_Port
SushiLauncher_Port
SyberiaLauncher_Port
Systemless_AMRLauncher
Systemless_AsusLauncher
Systemless_CRLauncher
Systemless_CorvusLauncher
Systemless_CorvusLauncher_Port
Systemless_DerpLauncher
Systemless_DerpLauncher_Port
Systemless_Lawnchair
Systemless_LawnchairExtra
Systemless_Lawnchair_Plus
Systemless_LegitCherishOSLauncher_Port
Systemless_OPLauncher
Systemless_OctaviLauncher
Systemless_OneUIHome
Systemless_OrtusLauncher
Systemless_PixelLauncher
Systemless_PixelLauncherX
Systemless_ShadyLauncher
Systemless_SparkLauncher
Systemless_SushiLauncher
TequilaOSLauncher_Port
VoltageLauncher_Port
XtendedLauncher_Port
asuslauncher
com.pixelated.launcher
crDroidLauncher_Port
lawnchair.app
lawnchair.app.unofficial
lawnchair_launcher_mod
quickstepswitcher
quickswitch_terminal
ztelauncher
";;
-mmh) MMHOSTSLIST="
AdAwayHosts
DisableAdBlocker
Energized
EnergizedHosts
Hosts
LuckyPatcherHosts
SystemlessHostsUnified
disableadblock
hosts
systemless-hosts
";;
-mma) MMAUDIOFX="
AudioFX
MusicFX
MiSound
Dirac
DiracAudioControlService
";;
-hex) HEXUUID="
0bbc89fe-52dc-4c40-8211-cae4da538b50
0e9779c9-4e8f-494d-b2b1-b4ad4e37c54c
146edfc0-7ed2-11e4-80eb-0002a5d5c51b
17852d50-161e-11e2-892e-0800200c9a66
3783c334-d3a0-4d13-874f-0032e5fb80e2
3799d6d1-22c5-43c3-b3ec-d664cf8d2f0d
41d3c987-e6cf-11e3-a88a-11aba5d5c51b
4c6383e0-ff7d-11e0-b6d8-0002a5d5c51b
50786e95-da76-4557-976b-7981bdf6feb9
50dbef80-4ad4-11e3-8f96-0800200c9a66
63509430-52aa-11e3-8f96-0800200c9a66
6723dd80-f0b7-11e0-98a2-0002a5d5c51b
6ab06da4-c516-4611-8166-452799218539
6ab06da4-c516-4611-8166-6168726e6f69
74697567-7261-6564-6864-65726f206678
850b6319-bf66-4f93-bec0-dc6964367786
90380da3-8536-4744-a6a3-5731970e640f
9626da93-9c71-4bb2-8e23-9fc707fb9703
9d4921da-8225-4f29-aefa-39537a04bcaa
9d4921da-8225-4f29-aefa-6e6f69726861
9d4921da-8225-4f29-aefa-aacb40a73593
a0c30891-8246-4aef-b8ad-696f6e726861
a0c30891-8246-4aef-b8ad-d53e26da0253